Alimentador_BandeirantesPR/CargaBT_DiaUtil807560002_M12.dss
New Load.BT_194_293565._M2NU Bus1=BT3790.1.2.3.0 phases=3 conn=Delta Model=2 kV=0.22 kW=1.732 pf=0.92 Vminpu=0.92 Vmaxpu=1.50 daily=RUR_4_Dia_Util status=variable 
New Load.BT_194_293565._M3NU Bus1=BT3790.1.2.3.0 phases=3 conn=Delta Model=3 kV=0.22 kW=1.732 pf=0.92 Vminpu=0.92 Vmaxpu=1.50 daily=RUR_4_Dia_Util status=variable 
New Load.BT_194_293565._MedNU Bus1=BT3790.1.2.3.0 phases=3 conn=Delta Model=3 kV=0.22 kW=0.0015 pf=1.0 Vminpu=0.92 Vmaxpu=1.50 daily=Flat status=variable 
New Load.BT_159_293598._M2NU Bus1=BT3791.1.2.0 phases=1 conn=wye Model=2 kV=0.22 kW=0.005 pf=0.92 Vminpu=0.92 Vmaxpu=1.50 daily=RUR_7_Dia_Util status=variable 
New Load.BT_159_293598._M3NU Bus1=BT3791.1.2.0 phases=1 conn=wye Model=3 kV=0.22 kW=0.005 pf=0.92 Vminpu=0.92 Vmaxpu=1.50 daily=RUR_7_Dia_Util status=variable 
New Load.BT_159_293598._MedNU Bus1=BT3791.1.2.0 phases=1 conn=wye Model=3 kV=0.22 kW=0.002 pf=1.0 Vminpu=0.92 Vmaxpu=1.50 daily=Flat status=variable 
New Load.BT_159_293600._M2NU Bus1=BT3792.1.0 phases=1 conn=wye Model=2 kV=0.127 kW=0.33 pf=0.92 Vminpu=0.92 Vmaxpu=1.50 daily=RUR_5_Dia_Util status=variable 
New Load.BT_159_293600._M3NU Bus1=BT3792.1.0 phases=1 conn=wye Model=3 kV=0.127 kW=0.33 pf=0.92 Vminpu=0.92 Vmaxpu=1.50 daily=RUR_5_Dia_Util status=variable 
New Load.BT_159_293600._MedNU Bus1=BT3792.1.0 phases=1 conn=wye Model=3 kV=0.127 kW=0.0005 pf=1.0 Vminpu=0.92 Vmaxpu=1.50 daily=Flat status=variable 
New Load.BT_252_278711._M2UB Bus1=BT3793.2.3.0 phases=1 conn=wye Model=2 kV=0.22 kW=0.169 pf=0.92 Vminpu=0.92 Vmaxpu=1.50 daily=RES_6_Dia_Util status=variable 
New Load.BT_252_278711._M3UB Bus1=BT3793.2.3.0 phases=1 conn=wye Model=3 kV=0.22 kW=0.169 pf=0.92 Vminpu=0.92 Vmaxpu=1.50 daily=RES_6_Dia_Util status=variable 
New Load.BT_252_278711._MedUB Bus1=BT3793.2.3.0 phases=1 conn=wye Model=3 kV=0.22 kW=0.001 pf=1.0 Vminpu=0.92 Vmaxpu=1.50 daily=Flat status=variable 
New Load.BT_252_278712._M2UB Bus1=BT3794.1.0 phases=1 conn=wye Model=2 kV=0.127 kW=0.008 pf=0.92 Vminpu=0.92 Vmaxpu=1.50 daily=RES_3_Dia_Util status=variable 
New Load.BT_252_278712._M3UB Bus1=BT3794.1.0 phases=1 conn=wye Model=3 kV=0.127 kW=0.008 pf=0.92 Vminpu=0.92 Vmaxpu=1.50 daily=RES_3_Dia_Util status=variable 
New Load.BT_252_278712._MedUB Bus1=BT3794.1.0 phases=1 conn=wye Model=3 kV=0.127 kW=0.0005 pf=1.0 Vminpu=0.92 Vmaxpu=1.50 daily=Flat status=variable 
New Load.BT_252_278715._M2UB Bus1=BT3795.1.2.3.0 phases=3 conn=Delta Model=2 kV=0.22 kW=0.55 pf=0.92 Vminpu=0.92 Vmaxpu=1.50 daily=IND_3_Dia_Util status=variable 
New Load.BT_252_278715._M3UB Bus1=BT3795.1.2.3.0 phases=3 conn=Delta Model=3 kV=0.22 kW=0.55 pf=0.92 Vminpu=0.92 Vmaxpu=1.50 daily=IND_3_Dia_Util status=variable 
New Load.BT_252_278715._MedUB Bus1=BT3795.1.2.3.0 phases=3 conn=Delta Model=3 kV=0.22 kW=0.0015 pf=1.0 Vminpu=0.92 Vmaxpu=1.50 daily=Flat status=variable 
New Load.BT_252_278716._M2UB Bus1=BT3796.1.2.3.0 phases=3 conn=Delta Model=2 kV=0.22 kW=0.203 pf=0.92 Vminpu=0.92 Vmaxpu=1.50 daily=COM_2_Dia_Util status=variable 
New Load.BT_252_278716._M3UB Bus1=BT3796.1.2.3.0 phases=3 conn=Delta Model=3 kV=0.22 kW=0.203 pf=0.92 Vminpu=0.92 Vmaxpu=1.50 daily=COM_2_Dia_Util status=variable 
New Load.BT_252_278716._MedUB Bus1=BT3796.1.2.3.0 phases=3 conn=Delta Model=3 kV=0.22 kW=0.0015 pf=1.0 Vminpu=0.92 Vmaxpu=1.50 daily=Flat status=variable 
New Load.BT_252_278717._M2UB Bus1=BT3797.1.0 phases=1 conn=wye Model=2 kV=0.127 kW=0.133 pf=0.92 Vminpu=0.92 Vmaxpu=1.50 daily=COM_6_Dia_Util status=variable 
New Load.BT_252_278717._M3UB Bus1=BT3797.1.0 phases=1 conn=wye Model=3 kV=0.127 kW=0.133 pf=0.92 Vminpu=0.92 Vmaxpu=1.50 daily=COM_6_Dia_Util status=variable 
New Load.BT_252_278717._MedUB Bus1=BT3797.1.0 phases=1 conn=wye Model=3 kV=0.127 kW=0.0005 pf=1.0 Vminpu=0.92 Vmaxpu=1.50 daily=Flat status=variable 
New Load.BT_252_278718._M2UB Bus1=BT3798.2.3.0 phases=1 conn=wye Model=2 kV=0.22 kW=0.798 pf=0.92 Vminpu=0.92 Vmaxpu=1.50 daily=COM_3_Dia_Util status=variable 
New Load.BT_252_278718._M3UB Bus1=BT3798.2.3.0 phases=1 conn=wye Model=3 kV=0.22 kW=0.798 pf=0.92 Vminpu=0.92 Vmaxpu=1.50 daily=COM_3_Dia_Util status=variable 
New Load.BT_252_278718._MedUB Bus1=BT3798.2.3.0 phases=1 conn=wye Model=3 kV=0.22 kW=0.001 pf=1.0 Vminpu=0.92 Vmaxpu=1.50 daily=Flat status=variable 
New Load.BT_252_278719._M2UB Bus1=BT3799.2.0 phases=1 conn=wye Model=2 kV=0.127 kW=0.376 pf=0.92 Vminpu=0.92 Vmaxpu=1.50 daily=RES_5_Dia_Util status=variable 
New Load.BT_252_278719._M3UB Bus1=BT3799.2.0 phases=1 conn=wye Model=3 kV=0.127 kW=0.376 pf=0.92 Vminpu=0.92 Vmaxpu=1.50 daily=RES_5_Dia_Util status=variable 
New Load.BT_252_278719._MedUB Bus1=BT3799.2.0 phases=1 conn=wye Model=3 kV=0.127 kW=0.0005 pf=1.0 Vminpu=0.92 Vmaxpu=1.50 daily=Flat status=variable 
New Load.BT_252_278721._M2UB Bus1=BT3800.1.2.0 phases=1 conn=wye Model=2 kV=0.22 kW=0.297 pf=0.92 Vminpu=0.92 Vmaxpu=1.50 daily=COM_4_Dia_Util status=variable 
New Load.BT_252_278721._M3UB Bus1=BT3800.1.2.0 phases=1 conn=wye Model=3 kV=0.22 kW=0.297 pf=0.92 Vminpu=0.92 Vmaxpu=1.50 daily=COM_4_Dia_Util status=variable 
New Load.BT_252_278721._MedUB Bus1=BT3800.1.2.0 phases=1 conn=wye Model=3 kV=0.22 kW=0.002 pf=1.0 Vminpu=0.92 Vmaxpu=1.50 daily=Flat status=variable 
New Load.BT_4_278722._M2UB Bus1=BT3801.3.0 phases=1 conn=wye Model=2 kV=0.127 kW=0.165 pf=0.92 Vminpu=0.92 Vmaxpu=1.50 daily=RES_6_Dia_Util status=variable 
New Load.BT_4_278722._M3UB Bus1=BT3801.3.0 phases=1 conn=wye Model=3 kV=0.127 kW=0.165 pf=0.92 Vminpu=0.92 Vmaxpu=1.50 daily=RES_6_Dia_Util status=variable 
New Load.BT_4_278722._MedUB Bus1=BT3801.3.0 phases=1 conn=wye Model=3 kV=0.127 kW=0.0005 pf=1.0 Vminpu=0.92 Vmaxpu=1.50 daily=Flat status=variable 
New Load.BT_4_278724._M2UB Bus1=BT3802.1.2.3.0 phases=3 conn=Delta Model=2 kV=0.22 kW=0.489 pf=0.92 Vminpu=0.92 Vmaxpu=1.50 daily=RES_1_Dia_Util status=variable 
New Load.BT_4_278724._M3UB Bus1=BT3802.1.2.3.0 phases=3 conn=Delta Model=3 kV=0.22 kW=0.489 pf=0.92 Vminpu=0.92 Vmaxpu=1.50 daily=RES_1_Dia_Util status=variable 
New Load.BT_4_278724._MedUB Bus1=BT3802.1.2.3.0 phases=3 conn=Delta Model=3 kV=0.22 kW=0.0015 pf=1.0 Vminpu=0.92 Vmaxpu=1.50 daily=Flat status=variable 
New Load.BT_4_278725._M2UB Bus1=BT3803.1.0 phases=1 conn=wye Model=2 kV=0.127 kW=0.298 pf=0.92 Vminpu=0.92 Vmaxpu=1.50 daily=RES_6_Dia_Util status=variable 
New Load.BT_4_278725._M3UB Bus1=BT3803.1.0 phases=1 conn=wye Model=3 kV=0.127 kW=0.298 pf=0.92 Vminpu=0.92 Vmaxpu=1.50 daily=RES_6_Dia_Util status=variable 
New Load.BT_4_278725._MedUB Bus1=BT3803.1.0 phases=1 conn=wye Model=3 kV=0.127 kW=0.0005 pf=1.0 Vminpu=0.92 Vmaxpu=1.50 daily=Flat status=variable 
New Load.BT_4_278726._M2UB Bus1=BT3804.1.0 phases=1 conn=wye Model=2 kV=0.127 kW=0.025 pf=0.92 Vminpu=0.92 Vmaxpu=1.50 daily=RES_2_Dia_Util status=variable 
New Load.BT_4_278726._M3UB Bus1=BT3804.1.0 phases=1 conn=wye Model=3 kV=0.127 kW=0.025 pf=0.92 Vminpu=0.92 Vmaxpu=1.50 daily=RES_2_Dia_Util status=variable 
New Load.BT_4_278726._MedUB Bus1=BT3804.1.0 phases=1 conn=wye Model=3 kV=0.127 kW=0.0005 pf=1.0 Vminpu=0.92 Vmaxpu=1.50 daily=Flat status=variable 
New Load.BT_4_278727._M2UB Bus1=BT3805.1.2.3.0 phases=3 conn=Delta Model=2 kV=0.22 kW=0.622 pf=0.92 Vminpu=0.92 Vmaxpu=1.50 daily=RES_1_Dia_Util status=variable 
New Load.BT_4_278727._M3UB Bus1=BT3805.1.2.3.0 phases=3 conn=Delta Model=3 kV=0.22 kW=0.622 pf=0.92 Vminpu=0.92 Vmaxpu=1.50 daily=RES_1_Dia_Util status=variable 
New Load.BT_4_278727._MedUB Bus1=BT3805.1.2.3.0 phases=3 conn=Delta Model=3 kV=0.22 kW=0.0015 pf=1.0 Vminpu=0.92 Vmaxpu=1.50 daily=Flat status=variable 
New Load.BT_4_278728._M2UB Bus1=BT3806.1.2.0 phases=1 conn=wye Model=2 kV=0.22 kW=0.613 pf=0.92 Vminpu=0.92 Vmaxpu=1.50 daily=RES_2_Dia_Util status=variable 
New Load.BT_4_278728._M3UB Bus1=BT3806.1.2.0 phases=1 conn=wye Model=3 kV=0.22 kW=0.613 pf=0.92 Vminpu=0.92 Vmaxpu=1.50 daily=RES_2_Dia_Util status=variable 
New Load.BT_4_278728._MedUB Bus1=BT3806.1.2.0 phases=1 conn=wye Model=3 kV=0.22 kW=0.001 pf=1.0 Vminpu=0.92 Vmaxpu=1.50 daily=Flat status=variable 
New Load.BT_4_278729._M2UB Bus1=BT3807.2.0 phases=1 conn=wye Model=2 kV=0.127 kW=0.047 pf=0.92 Vminpu=0.92 Vmaxpu=1.50 daily=COM_2_Dia_Util status=variable 
New Load.BT_4_278729._M3UB Bus1=BT3807.2.0 phases=1 conn=wye Model=3 kV=0.127 kW=0.047 pf=0.92 Vminpu=0.92 Vmaxpu=1.50 daily=COM_2_Dia_Util status=variable 
New Load.BT_4_278729._MedUB Bus1=BT3807.2.0 phases=1 conn=wye Model=3 kV=0.127 kW=0.0005 pf=1.0 Vminpu=0.92 Vmaxpu=1.50 daily=Flat status=variable 
New Load.BT_4_278730._M2UB Bus1=BT3808.1.0 phases=1 conn=wye Model=2 kV=0.127 kW=0.415 pf=0.92 Vminpu=0.92 Vmaxpu=1.50 daily=RES_4_Dia_Util status=variable 
New Load.BT_4_278730._M3UB Bus1=BT3808.1.0 phases=1 conn=wye Model=3 kV=0.127 kW=0.415 pf=0.92 Vminpu=0.92 Vmaxpu=1.50 daily=RES_4_Dia_Util status=variable 
New Load.BT_4_278730._MedUB Bus1=BT3808.1.0 phases=1 conn=wye Model=3 kV=0.127 kW=0.0005 pf=1.0 Vminpu=0.92 Vmaxpu=1.50 daily=Flat status=variable 
New Load.BT_4_278731._M2UB Bus1=BT3809.1.2.3.0 phases=3 conn=Delta Model=2 kV=0.22 kW=0.594 pf=0.92 Vminpu=0.92 Vmaxpu=1.50 daily=RES_5_Dia_Util status=variable 
New Load.BT_4_278731._M3UB Bus1=BT3809.1.2.3.0 phases=3 conn=Delta Model=3 kV=0.22 kW=0.594 pf=0.92 Vminpu=0.92 Vmaxpu=1.50 daily=RES_5_Dia_Util status=variable 
New Load.BT_4_278731._MedUB Bus1=BT3809.1.2.3.0 phases=3 conn=Delta Model=3 kV=0.22 kW=0.0015 pf=1.0 Vminpu=0.92 Vmaxpu=1.50 daily=Flat status=variable 
New Load.BT_3_278732._M2UB Bus1=BT3810.1.2.3.0 phases=3 conn=Delta Model=2 kV=0.22 kW=1.139 pf=0.92 Vminpu=0.92 Vmaxpu=1.50 daily=RES_4_Dia_Util status=variable 
New Load.BT_3_278732._M3UB Bus1=BT3810.1.2.3.0 phases=3 conn=Delta Model=3 kV=0.22 kW=1.139 pf=0.92 Vminpu=0.92 Vmaxpu=1.50 daily=RES_4_Dia_Util status=variable 
New Load.BT_3_278732._MedUB Bus1=BT3810.1.2.3.0 phases=3 conn=Delta Model=3 kV=0.22 kW=0.0015 pf=1.0 Vminpu=0.92 Vmaxpu=1.50 daily=Flat status=variable 
New Load.BT_3_278733._M2UB Bus1=BT3811.3.1.0 phases=1 conn=wye Model=2 kV=0.22 kW=0.577 pf=0.92 Vminpu=0.92 Vmaxpu=1.50 daily=RES_4_Dia_Util status=variable 
New Load.BT_3_278733._M3UB Bus1=BT3811.3.1.0 phases=1 conn=wye Model=3 kV=0.22 kW=0.577 pf=0.92 Vminpu=0.92 Vmaxpu=1.50 daily=RES_4_Dia_Util status=variable 
New Load.BT_3_278733._MedUB Bus1=BT3811.3.1.0 phases=1 conn=wye Model=3 kV=0.22 kW=0.001 pf=1.0 Vminpu=0.92 Vmaxpu=1.50 daily=Flat status=variable 
New Load.BT_4_278735._M2UB Bus1=BT3812.1.2.3.0 phases=3 conn=Delta Model=2 kV=0.22 kW=0.473 pf=0.92 Vminpu=0.92 Vmaxpu=1.50 daily=RES_4_Dia_Util status=variable 
New Load.BT_4_278735._M3UB Bus1=BT3812.1.2.3.0 phases=3 conn=Delta Model=3 kV=0.22 kW=0.473 pf=0.92 Vminpu=0.92 Vmaxpu=1.50 daily=RES_4_Dia_Util status=variable 
New Load.BT_4_278735._MedUB Bus1=BT3812.1.2.3.0 phases=3 conn=Delta Model=3 kV=0.22 kW=0.003 pf=1.0 Vminpu=0.92 Vmaxpu=1.50 daily=Flat status=variable 
New Load.BT_3_278736._M2UB Bus1=BT3813.1.2.0 phases=1 conn=wye Model=2 kV=0.22 kW=0.446 pf=0.92 Vminpu=0.92 Vmaxpu=1.50 daily=RES_1_Dia_Util status=variable 
New Load.BT_3_278736._M3UB Bus1=BT3813.1.2.0 phases=1 conn=wye Model=3 kV=0.22 kW=0.446 pf=0.92 Vminpu=0.92 Vmaxpu=1.50 daily=RES_1_Dia_Util status=variable 
New Load.BT_3_278736._MedUB Bus1=BT3813.1.2.0 phases=1 conn=wye Model=3 kV=0.22 kW=0.001 pf=1.0 Vminpu=0.92 Vmaxpu=1.50 daily=Flat status=variable 
New Load.BT_3_278737._M2UB Bus1=BT3814.3.0 phases=1 conn=wye Model=2 kV=0.127 kW=0.323 pf=0.92 Vminpu=0.92 Vmaxpu=1.50 daily=RES_5_Dia_Util status=variable 
New Load.BT_3_278737._M3UB Bus1=BT3814.3.0 phases=1 conn=wye Model=3 kV=0.127 kW=0.323 pf=0.92 Vminpu=0.92 Vmaxpu=1.50 daily=RES_5_Dia_Util status=variable 
New Load.BT_3_278737._MedUB Bus1=BT3814.3.0 phases=1 conn=wye Model=3 kV=0.127 kW=0.001 pf=1.0 Vminpu=0.92 Vmaxpu=1.50 daily=Flat status=variable 
New Load.BT_3_278738._M2UB Bus1=BT3815.1.2.3.0 phases=3 conn=Delta Model=2 kV=0.22 kW=0.785 pf=0.92 Vminpu=0.92 Vmaxpu=1.50 daily=RES_1_Dia_Util status=variable 
New Load.BT_3_278738._M3UB Bus1=BT3815.1.2.3.0 phases=3 conn=Delta Model=3 kV=0.22 kW=0.785 pf=0.92 Vminpu=0.92 Vmaxpu=1.50 daily=RES_1_Dia_Util status=variable 
New Load.BT_3_278738._MedUB Bus1=BT3815.1.2.3.0 phases=3 conn=Delta Model=3 kV=0.22 kW=0.0015 pf=1.0 Vminpu=0.92 Vmaxpu=1.50 daily=Flat status=variable 
New Load.BT_3_278739._M2UB Bus1=BT3816.2.3.0 phases=1 conn=wye Model=2 kV=0.22 kW=0.398 pf=0.92 Vminpu=0.92 Vmaxpu=1.50 daily=RES_6_Dia_Util status=variable 
New Load.BT_3_278739._M3UB Bus1=BT3816.2.3.0 phases=1 conn=wye Model=3 kV=0.22 kW=0.398 pf=0.92 Vminpu=0.92 Vmaxpu=1.50 daily=RES_6_Dia_Util status=variable 
New Load.BT_3_278739._MedUB Bus1=BT3816.2.3.0 phases=1 conn=wye Model=3 kV=0.22 kW=0.002 pf=1.0 Vminpu=0.92 Vmaxpu=1.50 daily=Flat status=variable 
New Load.BT_3_278740._M2UB Bus1=BT3817.1.2.3.0 phases=3 conn=Delta Model=2 kV=0.22 kW=0.9 pf=0.92 Vminpu=0.92 Vmaxpu=1.50 daily=RES_5_Dia_Util status=variable 
New Load.BT_3_278740._M3UB Bus1=BT3817.1.2.3.0 phases=3 conn=Delta Model=3 kV=0.22 kW=0.9 pf=0.92 Vminpu=0.92 Vmaxpu=1.50 daily=RES_5_Dia_Util status=variable 
New Load.BT_3_278740._MedUB Bus1=BT3817.1.2.3.0 phases=3 conn=Delta Model=3 kV=0.22 kW=0.0015 pf=1.0 Vminpu=0.92 Vmaxpu=1.50 daily=Flat status=variable 
New Load.BT_3_278741._M2UB Bus1=BT3818.1.2.3.0 phases=3 conn=Delta Model=2 kV=0.22 kW=0.454 pf=0.92 Vminpu=0.92 Vmaxpu=1.50 daily=RES_3_Dia_Util status=variable 
New Load.BT_3_278741._M3UB Bus1=BT3818.1.2.3.0 phases=3 conn=Delta Model=3 kV=0.22 kW=0.454 pf=0.92 Vminpu=0.92 Vmaxpu=1.50 daily=RES_3_Dia_Util status=variable 
New Load.BT_3_278741._MedUB Bus1=BT3818.1.2.3.0 phases=3 conn=Delta Model=3 kV=0.22 kW=0.0015 pf=1.0 Vminpu=0.92 Vmaxpu=1.50 daily=Flat status=variable 
New Load.BT_3_278743._M2UB Bus1=BT3819.2.3.0 phases=1 conn=wye Model=2 kV=0.22 kW=0.76 pf=0.92 Vminpu=0.92 Vmaxpu=1.50 daily=RES_1_Dia_Util status=variable 
New Load.BT_3_278743._M3UB Bus1=BT3819.2.3.0 phases=1 conn=wye Model=3 kV=0.22 kW=0.76 pf=0.92 Vminpu=0.92 Vmaxpu=1.50 daily=RES_1_Dia_Util status=variable 
New Load.BT_3_278743._MedUB Bus1=BT3819.2.3.0 phases=1 conn=wye Model=3 kV=0.22 kW=0.001 pf=1.0 Vminpu=0.92 Vmaxpu=1.50 daily=Flat status=variable 
New Load.BT_3_278744._M2UB Bus1=BT3820.1.2.3.0 phases=3 conn=Delta Model=2 kV=0.22 kW=0.38 pf=0.92 Vminpu=0.92 Vmaxpu=1.50 daily=COM_1_Dia_Util status=variable 
New Load.BT_3_278744._M3UB Bus1=BT3820.1.2.3.0 phases=3 conn=Delta Model=3 kV=0.22 kW=0.38 pf=0.92 Vminpu=0.92 Vmaxpu=1.50 daily=COM_1_Dia_Util status=variable 
New Load.BT_3_278744._MedUB Bus1=BT3820.1.2.3.0 phases=3 conn=Delta Model=3 kV=0.22 kW=0.0015 pf=1.0 Vminpu=0.92 Vmaxpu=1.50 daily=Flat status=variable 
New Load.BT_3_278745._M2UB Bus1=BT3821.1.2.0 phases=1 conn=wye Model=2 kV=0.22 kW=0.757 pf=0.92 Vminpu=0.92 Vmaxpu=1.50 daily=RES_8_Dia_Util status=variable 
New Load.BT_3_278745._M3UB Bus1=BT3821.1.2.0 phases=1 conn=wye Model=3 kV=0.22 kW=0.757 pf=0.92 Vminpu=0.92 Vmaxpu=1.50 daily=RES_8_Dia_Util status=variable 
New Load.BT_3_278745._MedUB Bus1=BT3821.1.2.0 phases=1 conn=wye Model=3 kV=0.22 kW=0.001 pf=1.0 Vminpu=0.92 Vmaxpu=1.50 daily=Flat status=variable 
New Load.BT_3_278746._M2UB Bus1=BT3822.3.1.0 phases=1 conn=wye Model=2 kV=0.22 kW=0.356 pf=0.92 Vminpu=0.92 Vmaxpu=1.50 daily=RES_4_Dia_Util status=variable 
New Load.BT_3_278746._M3UB Bus1=BT3822.3.1.0 phases=1 conn=wye Model=3 kV=0.22 kW=0.356 pf=0.92 Vminpu=0.92 Vmaxpu=1.50 daily=RES_4_Dia_Util status=variable 
New Load.BT_3_278746._MedUB Bus1=BT3822.3.1.0 phases=1 conn=wye Model=3 kV=0.22 kW=0.001 pf=1.0 Vminpu=0.92 Vmaxpu=1.50 daily=Flat status=variable 
New Load.BT_3_278747._M2UB Bus1=BT3823.2.3.0 phases=1 conn=wye Model=2 kV=0.22 kW=0.948 pf=0.92 Vminpu=0.92 Vmaxpu=1.50 daily=RES_1_Dia_Util status=variable 
New Load.BT_3_278747._M3UB Bus1=BT3823.2.3.0 phases=1 conn=wye Model=3 kV=0.22 kW=0.948 pf=0.92 Vminpu=0.92 Vmaxpu=1.50 daily=RES_1_Dia_Util status=variable 
New Load.BT_3_278747._MedUB Bus1=BT3823.2.3.0 phases=1 conn=wye Model=3 kV=0.22 kW=0.001 pf=1.0 Vminpu=0.92 Vmaxpu=1.50 daily=Flat status=variable 
New Load.BT_3_278772._M2UB Bus1=BT3824.1.2.0 phases=1 conn=wye Model=2 kV=0.22 kW=0.381 pf=0.92 Vminpu=0.92 Vmaxpu=1.50 daily=RES_5_Dia_Util status=variable 
New Load.BT_3_278772._M3UB Bus1=BT3824.1.2.0 phases=1 conn=wye Model=3 kV=0.22 kW=0.381 pf=0.92 Vminpu=0.92 Vmaxpu=1.50 daily=RES_5_Dia_Util status=variable 
New Load.BT_3_278772._MedUB Bus1=BT3824.1.2.0 phases=1 conn=wye Model=3 kV=0.22 kW=0.001 pf=1.0 Vminpu=0.92 Vmaxpu=1.50 daily=Flat status=variable 
New Load.BT_3_278773._M2UB Bus1=BT3825.1.2.3.0 phases=3 conn=Delta Model=2 kV=0.22 kW=3.781 pf=0.92 Vminpu=0.92 Vmaxpu=1.50 daily=IND_3_Dia_Util status=variable 
New Load.BT_3_278773._M3UB Bus1=BT3825.1.2.3.0 phases=3 conn=Delta Model=3 kV=0.22 kW=3.781 pf=0.92 Vminpu=0.92 Vmaxpu=1.50 daily=IND_3_Dia_Util status=variable 
New Load.BT_3_278773._MedUB Bus1=BT3825.1.2.3.0 phases=3 conn=Delta Model=3 kV=0.22 kW=0.003 pf=1.0 Vminpu=0.92 Vmaxpu=1.50 daily=Flat status=variable 
New Load.BT_3_278774._M2UB Bus1=BT3826.1.2.0 phases=1 conn=wye Model=2 kV=0.22 kW=0.263 pf=0.92 Vminpu=0.92 Vmaxpu=1.50 daily=RES_1_Dia_Util status=variable 
New Load.BT_3_278774._M3UB Bus1=BT3826.1.2.0 phases=1 conn=wye Model=3 kV=0.22 kW=0.263 pf=0.92 Vminpu=0.92 Vmaxpu=1.50 daily=RES_1_Dia_Util status=variable 
New Load.BT_3_278774._MedUB Bus1=BT3826.1.2.0 phases=1 conn=wye Model=3 kV=0.22 kW=0.002 pf=1.0 Vminpu=0.92 Vmaxpu=1.50 daily=Flat status=variable 
New Load.BT_4_278775._M2UB Bus1=BT3827.1.0 phases=1 conn=wye Model=2 kV=0.127 kW=0.511 pf=0.92 Vminpu=0.92 Vmaxpu=1.50 daily=RES_5_Dia_Util status=variable 
New Load.BT_4_278775._M3UB Bus1=BT3827.1.0 phases=1 conn=wye Model=3 kV=0.127 kW=0.511 pf=0.92 Vminpu=0.92 Vmaxpu=1.50 daily=RES_5_Dia_Util status=variable 
New Load.BT_4_278775._MedUB Bus1=BT3827.1.0 phases=1 conn=wye Model=3 kV=0.127 kW=0.0005 pf=1.0 Vminpu=0.92 Vmaxpu=1.50 daily=Flat status=variable 
New Load.BT_252_278777._M2UB Bus1=BT3828.2.0 phases=1 conn=wye Model=2 kV=0.127 kW=0.019 pf=0.92 Vminpu=0.92 Vmaxpu=1.50 daily=COM_1_Dia_Util status=variable 
New Load.BT_252_278777._M3UB Bus1=BT3828.2.0 phases=1 conn=wye Model=3 kV=0.127 kW=0.019 pf=0.92 Vminpu=0.92 Vmaxpu=1.50 daily=COM_1_Dia_Util status=variable 
New Load.BT_252_278777._MedUB Bus1=BT3828.2.0 phases=1 conn=wye Model=3 kV=0.127 kW=0.0005 pf=1.0 Vminpu=0.92 Vmaxpu=1.50 daily=Flat status=variable 
New Load.BT_251_278781._M2UB Bus1=BT3829.1.2.0 phases=1 conn=wye Model=2 kV=0.22 kW=0.27 pf=0.92 Vminpu=0.92 Vmaxpu=1.50 daily=RES_6_Dia_Util status=variable 
New Load.BT_251_278781._M3UB Bus1=BT3829.1.2.0 phases=1 conn=wye Model=3 kV=0.22 kW=0.27 pf=0.92 Vminpu=0.92 Vmaxpu=1.50 daily=RES_6_Dia_Util status=variable 
New Load.BT_251_278781._MedUB Bus1=BT3829.1.2.0 phases=1 conn=wye Model=3 kV=0.22 kW=0.002 pf=1.0 Vminpu=0.92 Vmaxpu=1.50 daily=Flat status=variable 
New Load.BT_251_278782._M2UB Bus1=BT3830.1.2.0 phases=1 conn=wye Model=2 kV=0.22 kW=0.257 pf=0.92 Vminpu=0.92 Vmaxpu=1.50 daily=RES_5_Dia_Util status=variable 
New Load.BT_251_278782._M3UB Bus1=BT3830.1.2.0 phases=1 conn=wye Model=3 kV=0.22 kW=0.257 pf=0.92 Vminpu=0.92 Vmaxpu=1.50 daily=RES_5_Dia_Util status=variable 
New Load.BT_251_278782._MedUB Bus1=BT3830.1.2.0 phases=1 conn=wye Model=3 kV=0.22 kW=0.001 pf=1.0 Vminpu=0.92 Vmaxpu=1.50 daily=Flat status=variable 
New Load.BT_251_278783._M2UB Bus1=BT3831.2.3.0 phases=1 conn=wye Model=2 kV=0.22 kW=1.018 pf=0.92 Vminpu=0.92 Vmaxpu=1.50 daily=RES_4_Dia_Util status=variable 
New Load.BT_251_278783._M3UB Bus1=BT3831.2.3.0 phases=1 conn=wye Model=3 kV=0.22 kW=1.018 pf=0.92 Vminpu=0.92 Vmaxpu=1.50 daily=RES_4_Dia_Util status=variable 
New Load.BT_251_278783._MedUB Bus1=BT3831.2.3.0 phases=1 conn=wye Model=3 kV=0.22 kW=0.001 pf=1.0 Vminpu=0.92 Vmaxpu=1.50 daily=Flat status=variable 
New Load.BT_251_278784._M2UB Bus1=BT3832.1.2.0 phases=1 conn=wye Model=2 kV=0.22 kW=0.513 pf=0.92 Vminpu=0.92 Vmaxpu=1.50 daily=RES_6_Dia_Util status=variable 
New Load.BT_251_278784._M3UB Bus1=BT3832.1.2.0 phases=1 conn=wye Model=3 kV=0.22 kW=0.513 pf=0.92 Vminpu=0.92 Vmaxpu=1.50 daily=RES_6_Dia_Util status=variable 
New Load.BT_251_278784._MedUB Bus1=BT3832.1.2.0 phases=1 conn=wye Model=3 kV=0.22 kW=0.002 pf=1.0 Vminpu=0.92 Vmaxpu=1.50 daily=Flat status=variable 
New Load.BT_252_278785._M2UB Bus1=BT3833.1.2.3.0 phases=3 conn=Delta Model=2 kV=0.22 kW=0.94 pf=0.92 Vminpu=0.92 Vmaxpu=1.50 daily=RES_8_Dia_Util status=variable 
New Load.BT_252_278785._M3UB Bus1=BT3833.1.2.3.0 phases=3 conn=Delta Model=3 kV=0.22 kW=0.94 pf=0.92 Vminpu=0.92 Vmaxpu=1.50 daily=RES_8_Dia_Util status=variable 
New Load.BT_252_278785._MedUB Bus1=BT3833.1.2.3.0 phases=3 conn=Delta Model=3 kV=0.22 kW=0.0015 pf=1.0 Vminpu=0.92 Vmaxpu=1.50 daily=Flat status=variable 
New Load.BT_252_278786._M2UB Bus1=BT3834.2.3.0 phases=1 conn=wye Model=2 kV=0.22 kW=0.484 pf=0.92 Vminpu=0.92 Vmaxpu=1.50 daily=RES_1_Dia_Util status=variable 
New Load.BT_252_278786._M3UB Bus1=BT3834.2.3.0 phases=1 conn=wye Model=3 kV=0.22 kW=0.484 pf=0.92 Vminpu=0.92 Vmaxpu=1.50 daily=RES_1_Dia_Util status=variable 
New Load.BT_252_278786._MedUB Bus1=BT3834.2.3.0 phases=1 conn=wye Model=3 kV=0.22 kW=0.001 pf=1.0 Vminpu=0.92 Vmaxpu=1.50 daily=Flat status=variable 
New Load.BT_252_278787._M2UB Bus1=BT3835.1.2.0 phases=1 conn=wye Model=2 kV=0.22 kW=0.279 pf=0.92 Vminpu=0.92 Vmaxpu=1.50 daily=COM_4_Dia_Util status=variable 
New Load.BT_252_278787._M3UB Bus1=BT3835.1.2.0 phases=1 conn=wye Model=3 kV=0.22 kW=0.279 pf=0.92 Vminpu=0.92 Vmaxpu=1.50 daily=COM_4_Dia_Util status=variable 
New Load.BT_252_278787._MedUB Bus1=BT3835.1.2.0 phases=1 conn=wye Model=3 kV=0.22 kW=0.002 pf=1.0 Vminpu=0.92 Vmaxpu=1.50 daily=Flat status=variable 
New Load.BT_252_278788._M2UB Bus1=BT3836.3.1.0 phases=1 conn=wye Model=2 kV=0.22 kW=0.436 pf=0.92 Vminpu=0.92 Vmaxpu=1.50 daily=RES_4_Dia_Util status=variable 
New Load.BT_252_278788._M3UB Bus1=BT3836.3.1.0 phases=1 conn=wye Model=3 kV=0.22 kW=0.436 pf=0.92 Vminpu=0.92 Vmaxpu=1.50 daily=RES_4_Dia_Util status=variable 
New Load.BT_252_278788._MedUB Bus1=BT3836.3.1.0 phases=1 conn=wye Model=3 kV=0.22 kW=0.001 pf=1.0 Vminpu=0.92 Vmaxpu=1.50 daily=Flat status=variable 
New Load.BT_251_278789._M2UB Bus1=BT3837.1.2.3.0 phases=3 conn=Delta Model=2 kV=0.22 kW=0.312 pf=0.92 Vminpu=0.92 Vmaxpu=1.50 daily=RES_5_Dia_Util status=variable 
New Load.BT_251_278789._M3UB Bus1=BT3837.1.2.3.0 phases=3 conn=Delta Model=3 kV=0.22 kW=0.312 pf=0.92 Vminpu=0.92 Vmaxpu=1.50 daily=RES_5_Dia_Util status=variable 
New Load.BT_251_278789._MedUB Bus1=BT3837.1.2.3.0 phases=3 conn=Delta Model=3 kV=0.22 kW=0.0015 pf=1.0 Vminpu=0.92 Vmaxpu=1.50 daily=Flat status=variable 
New Load.BT_4_278790._M2UB Bus1=BT3838.2.3.0 phases=1 conn=wye Model=2 kV=0.22 kW=0.609 pf=0.92 Vminpu=0.92 Vmaxpu=1.50 daily=RES_1_Dia_Util status=variable 
New Load.BT_4_278790._M3UB Bus1=BT3838.2.3.0 phases=1 conn=wye Model=3 kV=0.22 kW=0.609 pf=0.92 Vminpu=0.92 Vmaxpu=1.50 daily=RES_1_Dia_Util status=variable 
New Load.BT_4_278790._MedUB Bus1=BT3838.2.3.0 phases=1 conn=wye Model=3 kV=0.22 kW=0.001 pf=1.0 Vminpu=0.92 Vmaxpu=1.50 daily=Flat status=variable 
New Load.BT_4_278791._M2UB Bus1=BT3839.1.2.3.0 phases=3 conn=Delta Model=2 kV=0.22 kW=0.4 pf=0.92 Vminpu=0.92 Vmaxpu=1.50 daily=RES_4_Dia_Util status=variable 
New Load.BT_4_278791._M3UB Bus1=BT3839.1.2.3.0 phases=3 conn=Delta Model=3 kV=0.22 kW=0.4 pf=0.92 Vminpu=0.92 Vmaxpu=1.50 daily=RES_4_Dia_Util status=variable 
New Load.BT_4_278791._MedUB Bus1=BT3839.1.2.3.0 phases=3 conn=Delta Model=3 kV=0.22 kW=0.0015 pf=1.0 Vminpu=0.92 Vmaxpu=1.50 daily=Flat status=variable 
New Load.BT_4_278792._M2UB Bus1=BT3840.1.2.3.0 phases=3 conn=Delta Model=2 kV=0.22 kW=1.379 pf=0.92 Vminpu=0.92 Vmaxpu=1.50 daily=RES_5_Dia_Util status=variable 
New Load.BT_4_278792._M3UB Bus1=BT3840.1.2.3.0 phases=3 conn=Delta Model=3 kV=0.22 kW=1.379 pf=0.92 Vminpu=0.92 Vmaxpu=1.50 daily=RES_5_Dia_Util status=variable 
New Load.BT_4_278792._MedUB Bus1=BT3840.1.2.3.0 phases=3 conn=Delta Model=3 kV=0.22 kW=0.0015 pf=1.0 Vminpu=0.92 Vmaxpu=1.50 daily=Flat status=variable 
New Load.BT_4_278793._M2UB Bus1=BT3841.1.2.3.0 phases=3 conn=Delta Model=2 kV=0.22 kW=1.103 pf=0.92 Vminpu=0.92 Vmaxpu=1.50 daily=RES_5_Dia_Util status=variable 
New Load.BT_4_278793._M3UB Bus1=BT3841.1.2.3.0 phases=3 conn=Delta Model=3 kV=0.22 kW=1.103 pf=0.92 Vminpu=0.92 Vmaxpu=1.50 daily=RES_5_Dia_Util status=variable 
New Load.BT_4_278793._MedUB Bus1=BT3841.1.2.3.0 phases=3 conn=Delta Model=3 kV=0.22 kW=0.0015 pf=1.0 Vminpu=0.92 Vmaxpu=1.50 daily=Flat status=variable 
New Load.BT_4_278794._M2UB Bus1=BT3842.1.2.3.0 phases=3 conn=Delta Model=2 kV=0.22 kW=1.488 pf=0.92 Vminpu=0.92 Vmaxpu=1.50 daily=RES_6_Dia_Util status=variable 
New Load.BT_4_278794._M3UB Bus1=BT3842.1.2.3.0 phases=3 conn=Delta Model=3 kV=0.22 kW=1.488 pf=0.92 Vminpu=0.92 Vmaxpu=1.50 daily=RES_6_Dia_Util status=variable 
New Load.BT_4_278794._MedUB Bus1=BT3842.1.2.3.0 phases=3 conn=Delta Model=3 kV=0.22 kW=0.0015 pf=1.0 Vminpu=0.92 Vmaxpu=1.50 daily=Flat status=variable 
New Load.BT_251_278796._M2UB Bus1=BT3843.1.2.3.0 phases=3 conn=Delta Model=2 kV=0.22 kW=0.165 pf=0.92 Vminpu=0.92 Vmaxpu=1.50 daily=RES_3_Dia_Util status=variable 
New Load.BT_251_278796._M3UB Bus1=BT3843.1.2.3.0 phases=3 conn=Delta Model=3 kV=0.22 kW=0.165 pf=0.92 Vminpu=0.92 Vmaxpu=1.50 daily=RES_3_Dia_Util status=variable 
New Load.BT_251_278796._MedUB Bus1=BT3843.1.2.3.0 phases=3 conn=Delta Model=3 kV=0.22 kW=0.0015 pf=1.0 Vminpu=0.92 Vmaxpu=1.50 daily=Flat status=variable 
New Load.BT_251_278797._M2UB Bus1=BT3844.1.2.0 phases=1 conn=wye Model=2 kV=0.22 kW=0.078 pf=0.92 Vminpu=0.92 Vmaxpu=1.50 daily=RES_6_Dia_Util status=variable 
New Load.BT_251_278797._M3UB Bus1=BT3844.1.2.0 phases=1 conn=wye Model=3 kV=0.22 kW=0.078 pf=0.92 Vminpu=0.92 Vmaxpu=1.50 daily=RES_6_Dia_Util status=variable 
New Load.BT_251_278797._MedUB Bus1=BT3844.1.2.0 phases=1 conn=wye Model=3 kV=0.22 kW=0.001 pf=1.0 Vminpu=0.92 Vmaxpu=1.50 daily=Flat status=variable 
New Load.BT_3_278799._M2UB Bus1=BT3845.3.1.0 phases=1 conn=wye Model=2 kV=0.22 kW=0.121 pf=0.92 Vminpu=0.92 Vmaxpu=1.50 daily=RES_3_Dia_Util status=variable 
New Load.BT_3_278799._M3UB Bus1=BT3845.3.1.0 phases=1 conn=wye Model=3 kV=0.22 kW=0.121 pf=0.92 Vminpu=0.92 Vmaxpu=1.50 daily=RES_3_Dia_Util status=variable 
New Load.BT_3_278799._MedUB Bus1=BT3845.3.1.0 phases=1 conn=wye Model=3 kV=0.22 kW=0.002 pf=1.0 Vminpu=0.92 Vmaxpu=1.50 daily=Flat status=variable 
New Load.BT_3_278800._M2UB Bus1=BT3846.3.1.0 phases=1 conn=wye Model=2 kV=0.22 kW=0.881 pf=0.92 Vminpu=0.92 Vmaxpu=1.50 daily=RES_5_Dia_Util status=variable 
New Load.BT_3_278800._M3UB Bus1=BT3846.3.1.0 phases=1 conn=wye Model=3 kV=0.22 kW=0.881 pf=0.92 Vminpu=0.92 Vmaxpu=1.50 daily=RES_5_Dia_Util status=variable 
New Load.BT_3_278800._MedUB Bus1=BT3846.3.1.0 phases=1 conn=wye Model=3 kV=0.22 kW=0.001 pf=1.0 Vminpu=0.92 Vmaxpu=1.50 daily=Flat status=variable 
New Load.BT_3_278801._M2UB Bus1=BT3847.2.0 phases=1 conn=wye Model=2 kV=0.127 kW=0.024 pf=0.92 Vminpu=0.92 Vmaxpu=1.50 daily=COM_4_Dia_Util status=variable 
New Load.BT_3_278801._M3UB Bus1=BT3847.2.0 phases=1 conn=wye Model=3 kV=0.127 kW=0.024 pf=0.92 Vminpu=0.92 Vmaxpu=1.50 daily=COM_4_Dia_Util status=variable 
New Load.BT_3_278801._MedUB Bus1=BT3847.2.0 phases=1 conn=wye Model=3 kV=0.127 kW=0.0005 pf=1.0 Vminpu=0.92 Vmaxpu=1.50 daily=Flat status=variable 
New Load.BT_3_278802._M2UB Bus1=BT3848.3.0 phases=1 conn=wye Model=2 kV=0.127 kW=0.487 pf=0.92 Vminpu=0.92 Vmaxpu=1.50 daily=RES_5_Dia_Util status=variable 
New Load.BT_3_278802._M3UB Bus1=BT3848.3.0 phases=1 conn=wye Model=3 kV=0.127 kW=0.487 pf=0.92 Vminpu=0.92 Vmaxpu=1.50 daily=RES_5_Dia_Util status=variable 
New Load.BT_3_278802._MedUB Bus1=BT3848.3.0 phases=1 conn=wye Model=3 kV=0.127 kW=0.0005 pf=1.0 Vminpu=0.92 Vmaxpu=1.50 daily=Flat status=variable 
New Load.BT_3_278803._M2UB Bus1=BT3849.1.0 phases=1 conn=wye Model=2 kV=0.127 kW=0.499 pf=0.92 Vminpu=0.92 Vmaxpu=1.50 daily=RES_1_Dia_Util status=variable 
New Load.BT_3_278803._M3UB Bus1=BT3849.1.0 phases=1 conn=wye Model=3 kV=0.127 kW=0.499 pf=0.92 Vminpu=0.92 Vmaxpu=1.50 daily=RES_1_Dia_Util status=variable 
New Load.BT_3_278803._MedUB Bus1=BT3849.1.0 phases=1 conn=wye Model=3 kV=0.127 kW=0.0005 pf=1.0 Vminpu=0.92 Vmaxpu=1.50 daily=Flat status=variable 
New Load.BT_3_278806._M2UB Bus1=BT3850.1.2.3.0 phases=3 conn=Delta Model=2 kV=0.22 kW=0.541 pf=0.92 Vminpu=0.92 Vmaxpu=1.50 daily=RES_4_Dia_Util status=variable 
New Load.BT_3_278806._M3UB Bus1=BT3850.1.2.3.0 phases=3 conn=Delta Model=3 kV=0.22 kW=0.541 pf=0.92 Vminpu=0.92 Vmaxpu=1.50 daily=RES_4_Dia_Util status=variable 
New Load.BT_3_278806._MedUB Bus1=BT3850.1.2.3.0 phases=3 conn=Delta Model=3 kV=0.22 kW=0.0015 pf=1.0 Vminpu=0.92 Vmaxpu=1.50 daily=Flat status=variable 
New Load.BT_3_278807._M2UB Bus1=BT3851.2.0 phases=1 conn=wye Model=2 kV=0.127 kW=0.008 pf=0.92 Vminpu=0.92 Vmaxpu=1.50 daily=RES_4_Dia_Util status=variable 
New Load.BT_3_278807._M3UB Bus1=BT3851.2.0 phases=1 conn=wye Model=3 kV=0.127 kW=0.008 pf=0.92 Vminpu=0.92 Vmaxpu=1.50 daily=RES_4_Dia_Util status=variable 
New Load.BT_3_278807._MedUB Bus1=BT3851.2.0 phases=1 conn=wye Model=3 kV=0.127 kW=0.0005 pf=1.0 Vminpu=0.92 Vmaxpu=1.50 daily=Flat status=variable 
New Load.BT_3_278808._M2UB Bus1=BT3852.1.0 phases=1 conn=wye Model=2 kV=0.127 kW=0.209 pf=0.92 Vminpu=0.92 Vmaxpu=1.50 daily=RES_6_Dia_Util status=variable 
New Load.BT_3_278808._M3UB Bus1=BT3852.1.0 phases=1 conn=wye Model=3 kV=0.127 kW=0.209 pf=0.92 Vminpu=0.92 Vmaxpu=1.50 daily=RES_6_Dia_Util status=variable 
New Load.BT_3_278808._MedUB Bus1=BT3852.1.0 phases=1 conn=wye Model=3 kV=0.127 kW=0.0005 pf=1.0 Vminpu=0.92 Vmaxpu=1.50 daily=Flat status=variable 
New Load.BT_3_278809._M2UB Bus1=BT3853.2.3.0 phases=1 conn=wye Model=2 kV=0.22 kW=0.404 pf=0.92 Vminpu=0.92 Vmaxpu=1.50 daily=RES_5_Dia_Util status=variable 
New Load.BT_3_278809._M3UB Bus1=BT3853.2.3.0 phases=1 conn=wye Model=3 kV=0.22 kW=0.404 pf=0.92 Vminpu=0.92 Vmaxpu=1.50 daily=RES_5_Dia_Util status=variable 
New Load.BT_3_278809._MedUB Bus1=BT3853.2.3.0 phases=1 conn=wye Model=3 kV=0.22 kW=0.001 pf=1.0 Vminpu=0.92 Vmaxpu=1.50 daily=Flat status=variable 
New Load.BT_3_278810._M2UB Bus1=BT3854.3.0 phases=1 conn=wye Model=2 kV=0.127 kW=0.252 pf=0.92 Vminpu=0.92 Vmaxpu=1.50 daily=RES_6_Dia_Util status=variable 
New Load.BT_3_278810._M3UB Bus1=BT3854.3.0 phases=1 conn=wye Model=3 kV=0.127 kW=0.252 pf=0.92 Vminpu=0.92 Vmaxpu=1.50 daily=RES_6_Dia_Util status=variable 
New Load.BT_3_278810._MedUB Bus1=BT3854.3.0 phases=1 conn=wye Model=3 kV=0.127 kW=0.0005 pf=1.0 Vminpu=0.92 Vmaxpu=1.50 daily=Flat status=variable 
New Load.BT_251_278833._M2UB Bus1=BT3855.3.1.0 phases=1 conn=wye Model=2 kV=0.22 kW=0.232 pf=0.92 Vminpu=0.92 Vmaxpu=1.50 daily=RES_2_Dia_Util status=variable 
New Load.BT_251_278833._M3UB Bus1=BT3855.3.1.0 phases=1 conn=wye Model=3 kV=0.22 kW=0.232 pf=0.92 Vminpu=0.92 Vmaxpu=1.50 daily=RES_2_Dia_Util status=variable 
New Load.BT_251_278833._MedUB Bus1=BT3855.3.1.0 phases=1 conn=wye Model=3 kV=0.22 kW=0.001 pf=1.0 Vminpu=0.92 Vmaxpu=1.50 daily=Flat status=variable 
New Load.BT_251_278834._M2UB Bus1=BT3856.2.3.0 phases=1 conn=wye Model=2 kV=0.22 kW=0.631 pf=0.92 Vminpu=0.92 Vmaxpu=1.50 daily=RES_5_Dia_Util status=variable 
New Load.BT_251_278834._M3UB Bus1=BT3856.2.3.0 phases=1 conn=wye Model=3 kV=0.22 kW=0.631 pf=0.92 Vminpu=0.92 Vmaxpu=1.50 daily=RES_5_Dia_Util status=variable 
...
